Circuit: * C:\Users\youss\Desktop\Fall 2023\Electronics I\Lab2\Prelab.asc

Direct Newton iteration for .op point succeeded.

Date: Mon Sep 18 19:07:43 2023
Total elapsed time: 0.132 seconds.

tnom = 27
temp = 27
method = modified trap
totiter = 5103
traniter = 5081
tranpoints = 1874
accept = 1500
rejected = 374
matrix size = 25
fillins = 0
solver = Normal
Avg thread counts: 1.3/1.8/1.8/1.3
Matrix Compiler1: 862 bytes object code size  0.6/0.5/[0.5]
Matrix Compiler2: 1.59 KB object code size  0.5/0.7/[0.4]

