Circuit: * C:\Users\youss\Desktop\Fall 2023\Electronics I\Lab2\Draft1.asc

.OP point found by inspection.

Date: Thu Sep 21 14:59:04 2023
Total elapsed time: 0.047 seconds.

tnom = 27
temp = 27
method = modified trap
totiter = 2300
traniter = 2300
tranpoints = 1058
accept = 1055
rejected = 3
matrix size = 4
fillins = 0
solver = Normal
Avg thread counts: 1.6/2.3/2.3/1.6
Matrix Compiler1:       6 opcodes  0.1/[0.1]/0.1
Matrix Compiler2: off  [0.1]/0.1/0.1

