Circuit: * U:\Fall 2023\Electronics I\EE-Lab2\simulation\Prelab.asc

Direct Newton iteration for .op point succeeded.

Date: Mon Oct  2 10:16:33 2023
Total elapsed time: 0.178 seconds.

tnom = 27
temp = 27
method = modified trap
totiter = 24813
traniter = 24791
tranpoints = 7920
accept = 5591
rejected = 2329
matrix size = 33
fillins = 0
solver = Normal
Avg thread counts: 1.0/1.1/1.1/1.0
Matrix Compiler1: 1.13 KB object code size  0.3/0.2/[0.2]
Matrix Compiler2: 2.12 KB object code size  0.2/0.3/[0.2]

