Circuit: * U:\Fall 2023\Electronics I\EE-Lab2\simulation\Prelab.asc

Direct Newton iteration for .op point succeeded.

Date: Sun Oct  1 21:26:56 2023
Total elapsed time: 0.056 seconds.

tnom = 27
temp = 27
method = modified trap
totiter = 5233
traniter = 5211
tranpoints = 1912
accept = 1520
rejected = 392
matrix size = 31
fillins = 0
solver = Normal
Avg thread counts: 1.2/1.5/1.5/1.2
Matrix Compiler1: 1.03 KB object code size  0.3/0.2/[0.2]
Matrix Compiler2: 1.98 KB object code size  0.2/0.2/[0.1]

